metodo: MT3D
freq: 0.01,1000,2
dxdydz:75,75,75
X:12000
Y:12000
Z:16000
layer: 1000,3900,4100
cond: 0.3,1.0,1e-3,1.0e-5
box:  2000,2500,-500,1500,-2500,200,0.02
box: -4000,2500,-1500,3000,-3900,800,1e-3
box: -3350,1250,-1000,2000,-3100,800,1e-3
box: -3050,600,-500,1000,-2300,800,1e-3
## exemplo 2

