metodo: MT3D
freq: 0.01,1000,2
dxdydz:50,50,50
X:10000
Y:10000
Z:16000
layer: 1000,3900,4000
cond: 1e-10,0.3,0.1,10e-5
box:  2000,2500,-500,1500,-2500,200,0.1
box: -4000,2500,-400,2500,-3900,800,0.1
box: -3350,1250,-400,1250,-3100,800,0.1
box: -3050,600,-400,1000,-2300,800,0.1
## exemplo 3 (modelo grande) 