metodo: MT3D
freq: 0.01,1000,2
dxdydz:50,50,50
X:2000
Y:5000
Z:16000
layer: 1000,3000,3500,4500,5000,6000
cond: 1e-6,1,0.05,0.002,1e-6,0.002
box: -100,200,-400,1000,-1500,300, 2e-12
box: -200,400,-400,1000,-1800,300, 2e-12
box: -300,600,-400,1000,-2100,300, 2e-12



