metodo: MT3D
freq: 0.01,1000,2
dxdydz:50,50,50
X:12000
Y:1200
Z:16000
layer: 1000,3900,3900,4000,4600
cond: 1e-10,0.3,1,10e-10,1
box:  2000,2500,-500,1500,-2500,200,1e-10
box: -4000,2500,-400,2500,-3900,800,1e-10
box: -3350,1250,-400,1250,-3100,800,1e-10
box: -3050,600,-400,1000,-2300,800,1e-10
## exemplo 2
